/*--------------------------------*- C++ -*----------------------------------*\
  =========                 |
  \      /  F ield         | OpenFOAM: The Open Source CFD Toolbox
   \    /   O peration     | Website:  https://openfoam.org
    \  /    A nd           | Version:  12
     \/     M anipulation  |
\*---------------------------------------------------------------------------*/
FoamFile
{
    version     2.0;
    format      ascii;
    class       dictionary;
    location    "0";
    object      decomposeParDict;  
}


numberOfSubdomains  1;

method              scotch;

simpleCoeffs
{
    n               (1 1 1); // Simple 1D decomposition
    
    
    
}

hierarchicalCoeffs
{
    n               (1 1 1);
    order           xyz;
}

// ************************************************************************* //